*Heading
** Job name: mode1_linear Model name: Model-1
** Generated by: Abaqus/CAE 6.14-2
*Preprint, echo=NO, model=NO, history=NO, contact=NO
**
** PARTS
**
*Part, name=Part-1
*End Part
**  
**
** ASSEMBLY
**
*Assembly, name=Assembly
**  
*Instance, name=Part-1-1, part=Part-1
*Node
      1,         400.,           0.,         660.
      2,           0.,           0.,         660.
      3,           0.,           0.,           0.
      4,         400.,           0.,           0.
      5,           0.,           2.,         660.
      6,           0.,           2.,           0.
      7,         400.,           2.,           0.
      8,         400.,           2.,         660.
      9,         400.,           0.,         800.
     10,           0.,           0.,         800.
     11,         400.,           2.,         800.
     12,           0.,           2.,         800.
     13,         400.,           2.,        1000.
     14,         400.,           5.,         800.
     15,         400.,           5.,        1000.
     16,           0.,           5.,         800.
     17,           0.,           5.,        1000.
     18,           0.,           2.,        1000.
     19,         210.,           5.,        1000.
     20,         210.,           2.,        1000.
** ... 15501 like lines cut
*Element, type=C3D8R
   1,   310,  3315,  6951,  3123,     1,    29,   755,   166
   2,  3315,  3316,  6952,  6951,    29,    30,   756,   755
   3,  3316,  3317,  6953,  6952,    30,    31,   757,   756
   4,  3317,  3318,  6954,  6953,    31,    32,   758,   757
   5,  3318,  3319,  6955,  6954,    32,    33,   759,   758
   6,  3319,  3320,  6956,  6955,    33,    34,   760,   759
   7,  3320,  3321,  6957,  6956,    34,    35,   761,   760
   8,  3321,  3322,  6958,  6957,    35,    36,   762,   761
   9,  3322,  3323,  6959,  6958,    36,    37,   763,   762
  10,  3323,  3324,  6960,  6959,    37,    38,   764,   763
  11,  3324,  3325,  6961,  6960,    38,    39,   765,   764
  12,  3325,  3326,  6962,  6961,    39,    40,   766,   765
  13,  3326,  3327,  6963,  6962,    40,    41,   767,   766
  14,  3327,  3328,  6964,  6963,    41,    42,   768,   767
  15,  3328,  3329,  6965,  6964,    42,    43,   769,   768
  16,  3329,  3330,  6966,  6965,    43,    44,   770,   769
  17,  3330,  3331,  6967,  6966,    44,    45,   771,   770
  18,  3331,  3332,  6968,  6967,    45,    46,   772,   771
  19,  3332,  3333,  6969,  6968,    46,    47,   773,   772
  20,  3333,  3334,  6970,  6969,    47,    48,   774,   773
** ... 12380 like lines cut
*Nset, nset=Set-1
     1,     2,     3,     4,     5,     6,     7,     8,     9,    10,    11,    12,    13,    18,    20,    22
    23,    24,    29,    30,    31,    32,    33,    34,    35,    36,    37,    38,    39,    40,    41,    42
    43,    44,    45,    46,    47,    48,    49,    50,    51,    52,    53,    54,    55,    56,    57,    58
    59,    60,    61,    62,    63,    64,    65,    66,    67,    68,    69,    70,    71,    72,    73,    74
    75,    76,    77,    78,    79,    80,    81,    82,    83,    84,    85,    86,    87,    88,    89,    90
    91,    92,    93,    94,    95,    96,    97,    98,    99,   100,   101,   102,   103,   104,   105,   106
   107,   108,   109,   110,   111,   112,   113,   114,   115,   116,   117,   118,   119,   120,   121,   122
   123,   124,   125,   126,   127,   128,   129,   130,   131,   132,   133,   134,   135,   136,   137,   138
   139,   140,   141,   142,   143,   144,   145,   146,   147,   148,   149,   150,   151,   152,   153,   154
   155,   156,   157,   158,   159,   160,   161,   162,   163,   164,   165,   166,   167,   168,   169,   170
   171,   172,   173,   174,   175,   176,   177,   178,   179,   180,   181,   182,   183,   184,   185,   186
   187,   188,   189,   190,   191,   192,   193,   194,   195,   196,   197,   198,   199,   200,   201,   202
   203,   204,   205,   206,   207,   208,   209,   210,   211,   212,   213,   214,   215,   216,   217,   218
   219,   220,   221,   222,   223,   224,   225,   226,   227,   228,   229,   230,   231,   232,   233,   234
   235,   236,   237,   238,   239,   240,   241,   242,   243,   244,   245,   246,   247,   248,   249,   250
   251,   252,   253,   254,   255,   256,   257,   258,   259,   260,   261,   262,   263,   264,   265,   266
   267,   268,   269,   270,   271,   272,   273,   274,   275,   276,   277,   278,   279,   280,   281,   282
   283,   284,   285,   286,   287,   288,   289,   290,   291,   292,   293,   294,   295,   296,   297,   298
   299,   300,   301,   302,   303,   304,   305,   306,   307,   308,   309,   310,   311,   312,   313,   314
   315,   316,   317,   318,   319,   320,   321,   322,   323,   324,   325,   326,   327,   328,   329,   330
** ... 724 like lines cut
*Elset, elset=Set-1
     1,     2,     3,     4,     5,     6,     7,     8,     9,    10,    11,    12,    13,    14,    15,    16
    17,    18,    19,    20,    21,    22,    23,    24,    25,    26,    27,    28,    29,    30,    31,    32
    33,    34,    35,    36,    37,    38,    39,    40,    41,    42,    43,    44,    45,    46,    47,    48
    49,    50,    51,    52,    53,    54,    55,    56,    57,    58,    59,    60,    61,    62,    63,    64
    65,    66,    67,    68,    69,    70,    71,    72,    73,    74,    75,    76,    77,    78,    79,    80
    81,    82,    83,    84,    85,    86,    87,    88,    89,    90,    91,    92,    93,    94,    95,    96
    97,    98,    99,   100,   101,   102,   103,   104,   105,   106,   107,   108,   109,   110,   111,   112
   113,   114,   115,   116,   117,   118,   119,   120,   121,   122,   123,   124,   125,   126,   127,   128
   129,   130,   131,   132,   133,   134,   135,   136,   137,   138,   139,   140,   141,   142,   143,   144
   145,   146,   147,   148,   149,   150,   151,   152,   153,   154,   155,   156,   157,   158,   159,   160
   161,   162,   163,   164,   165,   166,   167,   168,   169,   170,   171,   172,   173,   174,   175,   176
   177,   178,   179,   180,   181,   182,   183,   184,   185,   186,   187,   188,   189,   190,   191,   192
   193,   194,   195,   196,   197,   198,   199,   200,   201,   202,   203,   204,   205,   206,   207,   208
   209,   210,   211,   212,   213,   214,   215,   216,   217,   218,   219,   220,   221,   222,   223,   224
   225,   226,   227,   228,   229,   230,   231,   232,   233,   234,   235,   236,   237,   238,   239,   240
   241,   242,   243,   244,   245,   246,   247,   248,   249,   250,   251,   252,   253,   254,   255,   256
   257,   258,   259,   260,   261,   262,   263,   264,   265,   266,   267,   268,   269,   270,   271,   272
   273,   274,   275,   276,   277,   278,   279,   280,   281,   282,   283,   284,   285,   286,   287,   288
   289,   290,   291,   292,   293,   294,   295,   296,   297,   298,   299,   300,   301,   302,   303,   304
   305,   306,   307,   308,   309,   310,   311,   312,   313,   314,   315,   316,   317,   318,   319,   320
** ... 550 like lines cut
*Nset, nset=Set-2
    11,    12,    13,    14,    15,    16,    17,    18,    19,    20,    21,    22,    25,    26,    27,    28
   372,   373,   374,   375,   376,   377,   378,   379,   380,   381,   382,   383,   384,   385,   386,   387
   388,   389,   390,   391,   392,   393,   394,   395,   396,   397,   398,   399,   400,   401,   402,   403
   404,   405,   406,   407,   408,   421,   422,   423,   424,   425,   426,   427,   428,   429,   430,   431
   432,   433,   434,   435,   436,   437,   438,   439,   440,   441,   442,   443,   444,   445,   446,   447
   448,   449,   450,   451,   452,   453,   454,   455,   456,   457,   458,   459,   460,   461,   462,   463
   464,   465,   466,   467,   468,   469,   470,   471,   472,   473,   474,   475,   476,   477,   478,   479
   480,   481,   482,   483,   484,   485,   486,   487,   488,   489,   490,   491,   492,   493,   494,   495
   496,   497,   498,   499,   500,   501,   502,   503,   504,   505,   506,   507,   508,   509,   510,   511
   512,   513,   514,   515,   516,   517,   518,   519,   520,   521,   522,   523,   524,   525,   526,   527
   528,   529,   530,   531,   532,   533,   534,   535,   536,   537,   538,   539,   540,   541,   542,   543
   544,   545,   546,   547,   548,   549,   550,   551,   552,   553,   554,   555,   556,   557,   558,   559
   560,   561,   562,   563,   564,   565,   566,   567,   568,   569,   570,   571,   572,   573,   574,   575
   576,   577,   578,   579,   580,   581,   582,   583,   584,   585,   586,   587,   588,   589,   590,   591
   592,   593,   594,   595,   596,   597,   598,   599,   600,   601,   602,   603,   604,   605,   606,   607
   608,   609,   610,   611,   612,   613,   614,   615,   616,   617,   618,   619,   620,   621,   703,   704
   705,   706,   707,   708,   709,   710,   711,   712,   713,   714,   715,   716,   717,   718,   719,   720
   721,   722,   723,   724,   725,   726,   727,   728,   729,   730,   731,   732,   733,   734,   735,   736
   737,   738,   739,   740,   741,   742,   743,   744,   745,   746,   747,   748,   749,   750,   751,   752
   753,   754,  4128,  4129,  4130,  4131,  4132,  4133,  4134,  4135,  4136,  4137,  4138,  4139,  4140,  4141
** ... 258 like lines cut
*Elset, elset=Set-2
  6081,  6082,  6083,  6084,  6085,  6086,  6087,  6088,  6089,  6090,  6091,  6092,  6093,  6094,  6095,  6096
  6097,  6098,  6099,  6100,  6101,  6102,  6103,  6104,  6105,  6106,  6107,  6108,  6109,  6110,  6111,  6112
  6113,  6114,  6115,  6116,  6117,  6118,  6119,  6120,  6121,  6122,  6123,  6124,  6125,  6126,  6127,  6128
  6129,  6130,  6131,  6132,  6133,  6134,  6135,  6136,  6137,  6138,  6139,  6140,  6141,  6142,  6143,  6144
  6145,  6146,  6147,  6148,  6149,  6150,  6151,  6152,  6153,  6154,  6155,  6156,  6157,  6158,  6159,  6160
  6161,  6162,  6163,  6164,  6165,  6166,  6167,  6168,  6169,  6170,  6171,  6172,  6173,  6174,  6175,  6176
  6177,  6178,  6179,  6180,  6181,  6182,  6183,  6184,  6185,  6186,  6187,  6188,  6189,  6190,  6191,  6192
  6193,  6194,  6195,  6196,  6197,  6198,  6199,  6200,  6201,  6202,  6203,  6204,  6205,  6206,  6207,  6208
  6209,  6210,  6211,  6212,  6213,  6214,  6215,  6216,  6217,  6218,  6219,  6220,  6221,  6222,  6223,  6224
  6225,  6226,  6227,  6228,  6229,  6230,  6231,  6232,  6233,  6234,  6235,  6236,  6237,  6238,  6239,  6240
  6241,  6242,  6243,  6244,  6245,  6246,  6247,  6248,  6249,  6250,  6251,  6252,  6253,  6254,  6255,  6256
  6257,  6258,  6259,  6260,  6261,  6262,  6263,  6264,  6265,  6266,  6267,  6268,  6269,  6270,  6271,  6272
  6273,  6274,  6275,  6276,  6277,  6278,  6279,  6280,  6281,  6282,  6283,  6284,  6285,  6286,  6287,  6288
  6289,  6290,  6291,  6292,  6293,  6294,  6295,  6296,  6297,  6298,  6299,  6300,  6301,  6302,  6303,  6304
  6305,  6306,  6307,  6308,  6309,  6310,  6311,  6312,  6313,  6314,  6315,  6316,  6317,  6318,  6319,  6320
  6321,  6322,  6323,  6324,  6325,  6326,  6327,  6328,  6329,  6330,  6331,  6332,  6333,  6334,  6335,  6336
  6337,  6338,  6339,  6340,  6341,  6342,  6343,  6344,  6345,  6346,  6347,  6348,  6349,  6350,  6351,  6352
  6353,  6354,  6355,  6356,  6357,  6358,  6359,  6360,  6361,  6362,  6363,  6364,  6365,  6366,  6367,  6368
  6369,  6370,  6371,  6372,  6373,  6374,  6375,  6376,  6377,  6378,  6379,  6380,  6381,  6382,  6383,  6384
  6385,  6386,  6387,  6388,  6389,  6390,  6391,  6392,  6393,  6394,  6395,  6396,  6397,  6398,  6399,  6400
** ... 185 like lines cut
** Section: Si
*Solid Section, elset=Set-1, material=Si
,
** Section: p
*Solid Section, elset=Set-2, material=p
,
*End Instance
**  
*Nset, nset=Set-1, instance=Part-1-1
    3,    4,    6,    7,   25,   26,   27,   28,   98,   99,  100,  101,  102,  103,  104,  105
  106,  107,  108,  109,  110,  111,  112,  113,  114,  115,  116,  117,  118,  119,  120,  121
  122,  123,  124,  125,  126,  127,  128,  129,  130,  131,  132,  133,  134,  236,  237,  238
  239,  240,  241,  242,  243,  244,  245,  246,  247,  248,  249,  250,  251,  252,  253,  254
  255,  256,  257,  258,  259,  260,  261,  262,  263,  264,  265,  266,  267,  268,  269,  270
  271,  272,  305,  306,  307,  311,  312,  313,  703,  704,  705,  706,  707,  708,  709,  710
  711,  712,  713,  714,  715,  716,  717,  718, 3426, 3427, 3428, 3429, 3430, 3431, 3432, 3433
 3434, 3435, 3436, 3437, 3438, 3439, 3440, 3441, 3442, 3443, 3444, 3445, 3446, 3447, 3448, 3449
 3450, 3451, 3452, 3453, 3454, 3455, 3456, 3457, 3458, 3459, 3460, 3461, 3462, 3463, 3464, 3465
 3466, 3467, 3468, 3469, 3470, 3471, 3472, 3473, 3474, 3475, 3476, 3477, 3478, 3479, 3480, 3481
 3482, 3483, 3484, 3485, 3486, 3487, 3488, 3489, 3490, 3491, 3492, 3493, 3494, 3495, 3496, 3497
 3498, 3499, 3500, 3501, 3502, 3503, 3504, 3505, 3506, 3507, 3508, 3509, 3510, 3511, 3512, 3513
 3514, 3515, 3516, 3517, 3518, 3519, 3520, 3521, 3522, 3523, 3524, 3525, 3526, 3527, 3528, 3529
 3530, 3531, 3532, 3533, 3534, 3535, 3536, 6792, 6793, 6794, 6795, 6796, 6797, 6798, 6799, 6800
 6801, 6802, 6803, 6804, 6805, 6806
*Elset, elset=Set-1, instance=Part-1-1
  1217,  1218,  1219,  1220,  1221,  1222,  1223,  1224,  1225,  1226,  1227,  1228,  1229,  1230,  1231,  1232
  1233,  1234,  1235,  1236,  1237,  1238,  1239,  1240,  1241,  1242,  1243,  1244,  1245,  1246,  1247,  1248
  1249,  1250,  1251,  1252,  1253,  1254,  2471,  2472,  2473,  2474,  2475,  2476,  2477,  2478,  2479,  2480
  2481,  2482,  2483,  2484,  2485,  2486,  2487,  2488,  2489,  2490,  2491,  2492,  2493,  2494,  2495,  2496
  2497,  2498,  2499,  2500,  2501,  2502,  2503,  2504,  2505,  2506,  2507,  2508,  3725,  3726,  3727,  3728
  3729,  3730,  3731,  3732,  3733,  3734,  3735,  3736,  3737,  3738,  3739,  3740,  3741,  3742,  3743,  3744
  3745,  3746,  3747,  3748,  3749,  3750,  3751,  3752,  3753,  3754,  3755,  3756,  3757,  3758,  3759,  3760
  3761,  3762,  4979,  4980,  4981,  4982,  4983,  4984,  4985,  4986,  4987,  4988,  4989,  4990,  4991,  4992
  4993,  4994,  4995,  4996,  4997,  4998,  4999,  5000,  5001,  5002,  5003,  5004,  5005,  5006,  5007,  5008
  5009,  5010,  5011,  5012,  5013,  5014,  5015,  5016, 12161, 12162, 12163, 12164, 12165, 12166, 12167, 12168
 12169, 12170, 12171, 12172, 12173, 12174, 12175, 12176, 12177, 12178, 12179, 12180, 12181, 12182, 12183, 12184
*Nset, nset=Set-2, instance=Part-1-1
    3,    4,    6,    7,   25,   26,   27,   28,   98,   99,  100,  101,  102,  103,  104,  105
  106,  107,  108,  109,  110,  111,  112,  113,  114,  115,  116,  117,  118,  119,  120,  121
  122,  123,  124,  125,  126,  127,  128,  129,  130,  131,  132,  133,  134,  236,  237,  238
  239,  240,  241,  242,  243,  244,  245,  246,  247,  248,  249,  250,  251,  252,  253,  254
  255,  256,  257,  258,  259,  260,  261,  262,  263,  264,  265,  266,  267,  268,  269,  270
  271,  272,  305,  306,  307,  311,  312,  313,  703,  704,  705,  706,  707,  708,  709,  710
  711,  712,  713,  714,  715,  716,  717,  718, 3426, 3427, 3428, 3429, 3430, 3431, 3432, 3433
 3434, 3435, 3436, 3437, 3438, 3439, 3440, 3441, 3442, 3443, 3444, 3445, 3446, 3447, 3448, 3449
 3450, 3451, 3452, 3453, 3454, 3455, 3456, 3457, 3458, 3459, 3460, 3461, 3462, 3463, 3464, 3465
 3466, 3467, 3468, 3469, 3470, 3471, 3472, 3473, 3474, 3475, 3476, 3477, 3478, 3479, 3480, 3481
 3482, 3483, 3484, 3485, 3486, 3487, 3488, 3489, 3490, 3491, 3492, 3493, 3494, 3495, 3496, 3497
 3498, 3499, 3500, 3501, 3502, 3503, 3504, 3505, 3506, 3507, 3508, 3509, 3510, 3511, 3512, 3513
 3514, 3515, 3516, 3517, 3518, 3519, 3520, 3521, 3522, 3523, 3524, 3525, 3526, 3527, 3528, 3529
 3530, 3531, 3532, 3533, 3534, 3535, 3536, 6792, 6793, 6794, 6795, 6796, 6797, 6798, 6799, 6800
 6801, 6802, 6803, 6804, 6805, 6806
*Elset, elset=Set-2, instance=Part-1-1
  1217,  1218,  1219,  1220,  1221,  1222,  1223,  1224,  1225,  1226,  1227,  1228,  1229,  1230,  1231,  1232
  1233,  1234,  1235,  1236,  1237,  1238,  1239,  1240,  1241,  1242,  1243,  1244,  1245,  1246,  1247,  1248
  1249,  1250,  1251,  1252,  1253,  1254,  2471,  2472,  2473,  2474,  2475,  2476,  2477,  2478,  2479,  2480
  2481,  2482,  2483,  2484,  2485,  2486,  2487,  2488,  2489,  2490,  2491,  2492,  2493,  2494,  2495,  2496
  2497,  2498,  2499,  2500,  2501,  2502,  2503,  2504,  2505,  2506,  2507,  2508,  3725,  3726,  3727,  3728
  3729,  3730,  3731,  3732,  3733,  3734,  3735,  3736,  3737,  3738,  3739,  3740,  3741,  3742,  3743,  3744
  3745,  3746,  3747,  3748,  3749,  3750,  3751,  3752,  3753,  3754,  3755,  3756,  3757,  3758,  3759,  3760
  3761,  3762,  4979,  4980,  4981,  4982,  4983,  4984,  4985,  4986,  4987,  4988,  4989,  4990,  4991,  4992
  4993,  4994,  4995,  4996,  4997,  4998,  4999,  5000,  5001,  5002,  5003,  5004,  5005,  5006,  5007,  5008
  5009,  5010,  5011,  5012,  5013,  5014,  5015,  5016, 12161, 12162, 12163, 12164, 12165, 12166, 12167, 12168
 12169, 12170, 12171, 12172, 12173, 12174, 12175, 12176, 12177, 12178, 12179, 12180, 12181, 12182, 12183, 12184
*Nset, nset=Set-3, instance=Part-1-1
   5,   8, 167, 168, 169, 170, 171, 172, 173, 174, 175, 176, 177, 178, 179, 180
 181, 182, 183, 184, 185, 186, 187, 188, 189, 190, 191, 192, 193, 194, 195, 196
 197, 198, 199, 200, 201, 202, 203
*Elset, elset=Set-3, instance=Part-1-1
 3763, 3764, 3765, 3766, 3767, 3768, 3769, 3770, 3771, 3772, 3773, 3774, 3775, 3776, 3777, 3778
 3779, 3780, 3781, 3782, 3783, 3784, 3785, 3786, 3787, 3788, 3789, 3790, 3791, 3792, 3793, 3794
 3795, 3796, 3797, 3798, 3799, 3800, 5815, 5816, 5817, 5818, 5819, 5820, 5821, 5822, 5823, 5824
 5825, 5826, 5827, 5828, 5829, 5830, 5831, 5832, 5833, 5834, 5835, 5836, 5837, 5838, 5839, 5840
 5841, 5842, 5843, 5844, 5845, 5846, 5847, 5848, 5849, 5850, 5851, 5852
*End Assembly
** 
** MATERIALS
** 
*Material, name=Si
*Damping, alpha=90.
*Density
 2.33e-09,
*Elastic
 1.7e+11, 0.28
*Material, name=p
*Damping, alpha=90.
*Density
 1.43e-09,
*Elastic
 3e+09, 0.33
** 
** BOUNDARY CONDITIONS
** 
** Name: BC-1 Type: Symmetry/Antisymmetry/Encastre
*Boundary
Set-2, ENCASTRE
** ----------------------------------------------------------------
** 
** STEP: Step-1
** 
*Step, name=Step-1, nlgeom=YES
*Static, direct
0.1, 1., 
** 
** BOUNDARY CONDITIONS
** 
** Name: BC-2 Type: Displacement/Rotation
*Boundary
Set-3, 2, 2, 5.
** 
** OUTPUT REQUESTS
** 
*Restart, write, frequency=0
*Output, field, frequency=0
** 
** HISTORY OUTPUT: H-Output-1
** 
*Output, history, variable=PRESELECT
*End Step
** ----------------------------------------------------------------
** 
** STEP: Step-2
** 
*Step, name=Step-2, nlgeom=YES, inc=1000000
*Dynamic
0.1,0.1,1e-13
** 
** BOUNDARY CONDITIONS
** 
** Name: BC-1 Type: Symmetry/Antisymmetry/Encastre
*Boundary, op=NEW
Set-2, ENCASTRE
** Name: BC-2 Type: Displacement/Rotation
*Boundary, op=NEW
** 
** OUTPUT REQUESTS
** 
*Restart, write, frequency=0
** 
** FIELD OUTPUT: Dynamic Output
** 
*Output, field, number interval=40000
*Node Output
A, U, V
*Element Output, directions=YES
E, LE, MISES, NE, S
** 
** HISTORY OUTPUT: H-Output-1
** 
*Output, history, variable=PRESELECT, frequency=1
*End Step
